<?xml version="1.0" encoding="UTF-8"?>

<!-- generated on 2025-12-16 19:46:25.569606 by randomTrips.py UNKNOWN
<configuration>
    <net-file value="out/net.net.xml"/>
    <route-file value="out/routes.rou.xml"/>
    <period value="1.0"/>
</configuration>
-->

<routes xmlns:xsi="http://www.w3.org/2001/XMLSchema-instance" xsi:noNamespaceSchemaLocation="http://sumo.dlr.de/xsd/routes_file.xsd">
    <trip id="0" depart="0.00" from="184941999" to="-1201055062"/>
    <trip id="1" depart="1.00" from="-606055116" to="-404092481"/>
    <trip id="2" depart="2.00" from="340596291#2" to="335399703"/>
    <trip id="3" depart="3.00" from="701825914-AddedOffRampEdge" to="-139669260"/>
    <trip id="4" depart="4.00" from="108852984#1" to="-122483594#0"/>
    <trip id="5" depart="5.00" from="-346074137" to="1293479623"/>
    <trip id="6" depart="6.00" from="-1200994415#0" to="-342265273#1"/>
    <trip id="7" depart="7.00" from="260882396" to="1321437144#2"/>
    <trip id="8" depart="8.00" from="-359200657#0" to="148491581"/>
    <trip id="9" depart="9.00" from="424052462#1" to="-102777575#1"/>
    <trip id="10" depart="10.00" from="41126511" to="339306377#2"/>
    <trip id="11" depart="11.00" from="-870907475" to="-338631049#1"/>
    <trip id="12" depart="12.00" from="870316476#0" to="-905257771"/>
    <trip id="13" depart="13.00" from="-139694356" to="-156212777"/>
    <trip id="14" depart="14.00" from="605963698#5" to="163419768#0"/>
    <trip id="15" depart="15.00" from="415516939" to="340606366#2"/>
    <trip id="16" depart="16.00" from="1299955899" to="920089996"/>
    <trip id="17" depart="17.00" from="102777575#1" to="1324970092"/>
    <trip id="18" depart="18.00" from="468577930" to="176715908#0"/>
    <trip id="19" depart="19.00" from="657026478" to="1391305684#3"/>
    <trip id="20" depart="20.00" from="339306351#7" to="-1298839600"/>
    <trip id="21" depart="21.00" from="-403276274" to="-700603233"/>
    <trip id="22" depart="22.00" from="-1354608133#1" to="-405125039"/>
    <trip id="23" depart="23.00" from="-156211338#0" to="-699548302#2"/>
    <trip id="24" depart="24.00" from="184019850#4" to="102777578#2"/>
    <trip id="25" depart="25.00" from="101878645#2" to="-345665417#1"/>
    <trip id="26" depart="26.00" from="-522846939#1" to="844695746"/>
    <trip id="27" depart="27.00" from="244439128#2" to="168463264"/>
    <trip id="28" depart="28.00" from="-339306347#1" to="340596300#3"/>
    <trip id="29" depart="29.00" from="-338631062#1" to="1058065503"/>
    <trip id="30" depart="30.00" from="97662159#1" to="244439128#1"/>
    <trip id="31" depart="31.00" from="1322051751#0" to="338631057#1"/>
    <trip id="32" depart="32.00" from="58708779#3-AddedOffRampEdge" to="403875707#3"/>
    <trip id="33" depart="33.00" from="-403871025#0" to="-122609705#1"/>
    <trip id="34" depart="34.00" from="-769635759#3" to="-608038639#0"/>
    <trip id="35" depart="35.00" from="-344069365" to="853514858#1"/>
    <trip id="36" depart="36.00" from="69866421#0-AddedOffRampEdge" to="-838927061"/>
    <trip id="37" depart="37.00" from="276629245#2" to="1072214399#0"/>
    <trip id="38" depart="38.00" from="769199666" to="1217546375"/>
    <trip id="39" depart="39.00" from="-495826267#0" to="-424120527#1"/>
    <trip id="40" depart="40.00" from="132310631#2" to="-605963732#1"/>
    <trip id="41" depart="41.00" from="1381086901" to="72011877"/>
    <trip id="42" depart="42.00" from="106984557#1-AddedOnRampEdge" to="-403276254#1"/>
    <trip id="43" depart="43.00" from="978577646" to="1298839504"/>
    <trip id="44" depart="44.00" from="-139653951" to="-1299399169#0"/>
    <trip id="45" depart="45.00" from="-163748513#1" to="184019837"/>
    <trip id="46" depart="46.00" from="405113035" to="1101508578"/>
    <trip id="47" depart="47.00" from="-1303438810" to="1066637389#4"/>
    <trip id="48" depart="48.00" from="978189409#0" to="1300188595"/>
    <trip id="49" depart="49.00" from="899187481" to="666579039"/>
    <trip id="50" depart="50.00" from="-1047794544" to="340570396"/>
    <trip id="51" depart="51.00" from="335397364#3" to="1303321137#0"/>
    <trip id="52" depart="52.00" from="-522430778" to="257216318#1"/>
    <trip id="53" depart="53.00" from="-164053766#0" to="1174824062"/>
    <trip id="54" depart="54.00" from="1179787062" to="870316456"/>
    <trip id="55" depart="55.00" from="69721396#0-AddedOffRampEdge" to="-605975246"/>
    <trip id="56" depart="56.00" from="1258958495" to="-340552089"/>
    <trip id="57" depart="57.00" from="768740213#1" to="69721153#0"/>
    <trip id="58" depart="58.00" from="-700260525#0" to="240789584"/>
    <trip id="59" depart="59.00" from="163137953#5" to="-338631018#2"/>
    <trip id="60" depart="60.00" from="344834064#1" to="1303321199"/>
    <trip id="61" depart="61.00" from="403276276" to="1300689189#1"/>
    <trip id="62" depart="62.00" from="-1002206559#0" to="-86668276#0"/>
    <trip id="63" depart="63.00" from="-1090413740#0" to="810628252"/>
    <trip id="64" depart="64.00" from="699526203#1" to="51771066"/>
    <trip id="65" depart="65.00" from="-732026830" to="-1303321114"/>
    <trip id="66" depart="66.00" from="699073082" to="856602633#1"/>
    <trip id="67" depart="67.00" from="-135625864" to="1255606439#0"/>
    <trip id="68" depart="68.00" from="-132310633#1" to="353605043#1"/>
    <trip id="69" depart="69.00" from="346872806" to="-276629232#0"/>
    <trip id="70" depart="70.00" from="1217693356#0" to="1322916836"/>
    <trip id="71" depart="71.00" from="-501381180" to="699073078#0"/>
    <trip id="72" depart="72.00" from="1090411265#3" to="-353605042#2"/>
    <trip id="73" depart="73.00" from="1299998953#1" to="340642016#1"/>
    <trip id="74" depart="74.00" from="-342265124#3" to="-813371581#1"/>
    <trip id="75" depart="75.00" from="977572922#1" to="277926827#1"/>
    <trip id="76" depart="76.00" from="1149837863" to="1299510158-AddedOnRampEdge"/>
    <trip id="77" depart="77.00" from="-184016274#1" to="-404260581#2"/>
    <trip id="78" depart="78.00" from="-870316469" to="1456435502#0"/>
    <trip id="79" depart="79.00" from="-403875619#0" to="-403418358"/>
    <trip id="80" depart="80.00" from="-1327655445" to="184601390#1"/>
    <trip id="81" depart="81.00" from="-403418365#1" to="75812583"/>
    <trip id="82" depart="82.00" from="647459753#2" to="-1329812763"/>
    <trip id="83" depart="83.00" from="-405110973#0" to="325742682#2"/>
    <trip id="84" depart="84.00" from="-344571961#0" to="-277926831#1"/>
    <trip id="85" depart="85.00" from="818023540#4-AddedOffRampEdge" to="1354611428"/>
    <trip id="86" depart="86.00" from="1217546489" to="405110991#2"/>
    <trip id="87" depart="87.00" from="416357274" to="-341998228#1"/>
    <trip id="88" depart="88.00" from="-1431612818" to="1173730629#3"/>
    <trip id="89" depart="89.00" from="1090411266#3" to="122140636#0"/>
    <trip id="90" depart="90.00" from="340570398" to="32759073#1"/>
    <trip id="91" depart="91.00" from="95801104#1" to="-161133439#0"/>
    <trip id="92" depart="92.00" from="106993448#5-AddedOnRampEdge" to="-938854929#0"/>
    <trip id="93" depart="93.00" from="657026477#1" to="-424131537#1"/>
    <trip id="94" depart="94.00" from="-340596237#3" to="1199774821#1"/>
    <trip id="95" depart="95.00" from="108852984#0" to="-699548309#0"/>
    <trip id="96" depart="96.00" from="-41125713#1" to="788095833#2-AddedOffRampEdge"/>
    <trip id="97" depart="97.00" from="1173730629#3" to="670528057#0-AddedOffRampEdge"/>
    <trip id="98" depart="98.00" from="1303321204" to="-1299829905"/>
    <trip id="99" depart="99.00" from="9930425#0" to="580637282#0"/>
    <trip id="100" depart="100.00" from="890947076#0" to="796380153#0"/>
    <trip id="101" depart="101.00" from="605975236#2" to="-339306351#7"/>
    <trip id="102" depart="102.00" from="1225879505#0" to="-378448805#0"/>
    <trip id="103" depart="103.00" from="106990069" to="-1303321141"/>
    <trip id="104" depart="104.00" from="102777581#1" to="967408559#1"/>
    <trip id="105" depart="105.00" from="-501381193" to="405110975#1"/>
    <trip id="106" depart="106.00" from="1180151583" to="110569975#0"/>
    <trip id="107" depart="107.00" from="870316476#1" to="978189403"/>
    <trip id="108" depart="108.00" from="1321635001" to="340552081#5"/>
    <trip id="109" depart="109.00" from="-335397420#2" to="-732258874#0"/>
    <trip id="110" depart="110.00" from="890947074#0" to="139682620#1"/>
    <trip id="111" depart="111.00" from="1300689243#1" to="34323705#0"/>
    <trip id="112" depart="112.00" from="-1300188592" to="1436731897#1"/>
    <trip id="113" depart="113.00" from="1263423829#0" to="646941813"/>
    <trip id="114" depart="114.00" from="-338625927" to="871796838#1"/>
    <trip id="115" depart="115.00" from="-1354608134#1" to="-340596275#2"/>
    <trip id="116" depart="116.00" from="1448135655#1" to="335397420#7"/>
    <trip id="117" depart="117.00" from="-404589854#1" to="-226352560#0"/>
    <trip id="118" depart="118.00" from="700506081#0" to="-424052708#1"/>
    <trip id="119" depart="119.00" from="1447379761" to="179636332#5"/>
    <trip id="120" depart="120.00" from="108843204#0" to="142682665"/>
    <trip id="121" depart="121.00" from="1299162319" to="834202884"/>
    <trip id="122" depart="122.00" from="-342265254" to="340552035"/>
    <trip id="123" depart="123.00" from="-405110975#1" to="107267355-AddedOffRampEdge"/>
    <trip id="124" depart="124.00" from="301702968" to="-769203920#0"/>
    <trip id="125" depart="125.00" from="-769635772" to="344551607#0"/>
    <trip id="126" depart="126.00" from="-1327657704" to="1217546357#0-AddedOffRampEdge"/>
    <trip id="127" depart="127.00" from="982355656" to="978189408#4-AddedOnRampEdge"/>
    <trip id="128" depart="128.00" from="-1327657714" to="-359200675"/>
    <trip id="129" depart="129.00" from="-501381193" to="818023545#3"/>
    <trip id="130" depart="130.00" from="699548316#1" to="699571517#4"/>
    <trip id="131" depart="131.00" from="101781120#1-AddedOffRampEdge" to="-338631062#3"/>
    <trip id="132" depart="132.00" from="506150973#1" to="340405919#1-AddedOffRampEdge"/>
    <trip id="133" depart="133.00" from="163400247#3-AddedOnRampEdge" to="967408569#1"/>
    <trip id="134" depart="134.00" from="276629198#1" to="-1035836658#0"/>
    <trip id="135" depart="135.00" from="424143566" to="-769203913#0"/>
    <trip id="136" depart="136.00" from="277928314#1" to="849777397"/>
    <trip id="137" depart="137.00" from="-276629201" to="-184173106#0"/>
    <trip id="138" depart="138.00" from="-163137945#0" to="1327655438"/>
    <trip id="139" depart="139.00" from="-605975247#6" to="163562739#0"/>
    <trip id="140" depart="140.00" from="340548237" to="-343884374#1"/>
    <trip id="141" depart="141.00" from="184005362#1" to="-605975248#2"/>
    <trip id="142" depart="142.00" from="1226133651" to="75714534#1"/>
    <trip id="143" depart="143.00" from="604321103-AddedOnRampEdge" to="-1446690577#0"/>
    <trip id="144" depart="144.00" from="1090411266#3" to="-699525229#0"/>
    <trip id="145" depart="145.00" from="-101878608#0" to="403276230#2"/>
    <trip id="146" depart="146.00" from="184189693#1" to="-589459840#0"/>
    <trip id="147" depart="147.00" from="341998279#0" to="132310797"/>
    <trip id="148" depart="148.00" from="109687017#4" to="-104766677#0"/>
    <trip id="149" depart="149.00" from="-1330557839" to="699626420"/>
    <trip id="150" depart="150.00" from="72656616#3" to="1321635010"/>
    <trip id="151" depart="151.00" from="506150982#2" to="139750252#2"/>
    <trip id="152" depart="152.00" from="-321303389#1" to="-276629192#6"/>
    <trip id="153" depart="153.00" from="-732270943#1" to="723673546"/>
    <trip id="154" depart="154.00" from="405316674" to="666403077#0"/>
    <trip id="155" depart="155.00" from="713615811#1-AddedOnRampEdge" to="-346039790#1"/>
    <trip id="156" depart="156.00" from="-409553697#1" to="-163425295#3"/>
    <trip id="157" depart="157.00" from="403418368#0" to="699803499#2"/>
    <trip id="158" depart="158.00" from="106993523#1" to="183758079#2"/>
    <trip id="159" depart="159.00" from="-335397411" to="810908796#2"/>
    <trip id="160" depart="160.00" from="664104861" to="93178838#1"/>
    <trip id="161" depart="161.00" from="424052712" to="699575306#0"/>
    <trip id="162" depart="162.00" from="-1191524261#1" to="342007715#1"/>
    <trip id="163" depart="163.00" from="-856602618" to="813900403"/>
    <trip id="164" depart="164.00" from="409550392" to="671826545#1"/>
    <trip id="165" depart="165.00" from="424052710" to="-606078424#2"/>
    <trip id="166" depart="166.00" from="404671419#1" to="-171976176#0"/>
    <trip id="167" depart="167.00" from="693787312#0" to="663714044#1"/>
    <trip id="168" depart="168.00" from="-379894767#0" to="424224098#1"/>
    <trip id="169" depart="169.00" from="1195448486#0" to="-772704802#0"/>
    <trip id="170" depart="170.00" from="405315146" to="-404589907#0"/>
    <trip id="171" depart="171.00" from="-1149837861#0" to="-342007717#1"/>
    <trip id="172" depart="172.00" from="-849777391#0" to="671826554#0"/>
    <trip id="173" depart="173.00" from="888822915#0" to="-699548946#0"/>
    <trip id="174" depart="174.00" from="188386700#1" to="108718480#5"/>
    <trip id="175" depart="175.00" from="95513535" to="1303321113#0"/>
    <trip id="176" depart="176.00" from="844552654" to="-184170667#1"/>
    <trip id="177" depart="177.00" from="891787510" to="-340552088#1"/>
    <trip id="178" depart="178.00" from="876000040" to="-605989871#1"/>
    <trip id="179" depart="179.00" from="-163419768#1" to="1174824059"/>
    <trip id="180" depart="180.00" from="340570384#1" to="-835504425#0"/>
    <trip id="181" depart="181.00" from="162851821#1" to="1299162296"/>
    <trip id="182" depart="182.00" from="103591722#1" to="1391093147"/>
    <trip id="183" depart="183.00" from="-424120527#0" to="340418914#1"/>
    <trip id="184" depart="184.00" from="-1002266787" to="796380147#0"/>
    <trip id="185" depart="185.00" from="1299955987" to="340552105#2"/>
    <trip id="186" depart="186.00" from="341998344#1" to="325845123"/>
    <trip id="187" depart="187.00" from="1002206563#1" to="-1327657718#1"/>
    <trip id="188" depart="188.00" from="278480079#2" to="-882052606#1"/>
    <trip id="189" depart="189.00" from="-769585280" to="606082157"/>
    <trip id="190" depart="190.00" from="340548317#0" to="-769230201"/>
    <trip id="191" depart="191.00" from="-746034626#0" to="108843230#3"/>
    <trip id="192" depart="192.00" from="106993448#3" to="-72656617#0"/>
    <trip id="193" depart="193.00" from="-226352582#3" to="1101508558#3"/>
    <trip id="194" depart="194.00" from="844734823" to="336849207#0"/>
    <trip id="195" depart="195.00" from="724650734#0" to="171537760#2"/>
    <trip id="196" depart="196.00" from="-708704786#0" to="132230763#3"/>
    <trip id="197" depart="197.00" from="-1002206552" to="-700031207#0"/>
    <trip id="198" depart="198.00" from="1101508533#1" to="139707274#3"/>
    <trip id="199" depart="199.00" from="276629235#2" to="1219240786#0"/>
    <trip id="200" depart="200.00" from="1173088279" to="-376979885"/>
    <trip id="201" depart="201.00" from="1217546501" to="72656616#2"/>
    <trip id="202" depart="202.00" from="405315169#3" to="-340418820#1"/>
    <trip id="203" depart="203.00" from="-1354611424#1" to="1299399242#0"/>
    <trip id="204" depart="204.00" from="183994035#1" to="-890947078#2"/>
    <trip id="205" depart="205.00" from="424217530#3" to="344069420#0"/>
    <trip id="206" depart="206.00" from="321303389#0" to="-404260581#2"/>
    <trip id="207" depart="207.00" from="-342007668#4" to="-1195448476#2"/>
    <trip id="208" depart="208.00" from="-405658931#2" to="122609696#1-AddedOnRampEdge"/>
    <trip id="209" depart="209.00" from="605975246" to="-1354605484"/>
    <trip id="210" depart="210.00" from="108718537#2" to="184457561#1"/>
    <trip id="211" depart="211.00" from="-340596294#2" to="339306355#2"/>
    <trip id="212" depart="212.00" from="1240334293#0" to="-416489291#1"/>
    <trip id="213" depart="213.00" from="276629251#1" to="-101878841"/>
    <trip id="214" depart="214.00" from="342265279#0" to="403276221#0"/>
    <trip id="215" depart="215.00" from="-162639480" to="1140691970"/>
    <trip id="216" depart="216.00" from="-340418820#1" to="870805596"/>
    <trip id="217" depart="217.00" from="1293580523" to="-1299829888#0"/>
    <trip id="218" depart="218.00" from="-409550388#0" to="608038624#2"/>
    <trip id="219" depart="219.00" from="1181412294" to="416370974#1"/>
    <trip id="220" depart="220.00" from="28654871-AddedOnRampEdge" to="968802987"/>
    <trip id="221" depart="221.00" from="1448135664#2" to="865662079#0"/>
    <trip id="222" depart="222.00" from="700603230" to="168738668"/>
    <trip id="223" depart="223.00" from="340548303" to="1293134412#2"/>
    <trip id="224" depart="224.00" from="478764547" to="132230763#2"/>
    <trip id="225" depart="225.00" from="71292380#0" to="342269354#1"/>
    <trip id="226" depart="226.00" from="1217670649" to="-554298151#0"/>
    <trip id="227" depart="227.00" from="-406007494#1" to="236802914#3"/>
    <trip id="228" depart="228.00" from="346872806" to="1299829926"/>
    <trip id="229" depart="229.00" from="176715910#1" to="-69205291#0"/>
    <trip id="230" depart="230.00" from="-1354606284#1" to="-69981574#0"/>
    <trip id="231" depart="231.00" from="-605975242#0" to="-855397544#0"/>
    <trip id="232" depart="232.00" from="1300188600" to="-278483749#2"/>
    <trip id="233" depart="233.00" from="-404092479" to="339306335#2"/>
    <trip id="234" depart="234.00" from="339306373#1" to="-132234802#0"/>
    <trip id="235" depart="235.00" from="106993535#0" to="131492667#1"/>
    <trip id="236" depart="236.00" from="108723226" to="-344551655#4"/>
    <trip id="237" depart="237.00" from="108843210#1" to="741618353#1"/>
    <trip id="238" depart="238.00" from="1381017458#0" to="339306351#15"/>
    <trip id="239" depart="239.00" from="638564493#1-AddedOnRampEdge" to="379526879"/>
    <trip id="240" depart="240.00" from="102780906#1" to="-101898121"/>
    <trip id="241" depart="241.00" from="-936757383#0" to="344551656#1"/>
    <trip id="242" depart="242.00" from="606078425#3" to="870316448#2"/>
    <trip id="243" depart="243.00" from="108843200#2" to="34323607#1"/>
    <trip id="244" depart="244.00" from="1303234575#0" to="163411760"/>
    <trip id="245" depart="245.00" from="-359200657#1" to="-403276254#2"/>
    <trip id="246" depart="246.00" from="1108928517" to="-122483564"/>
    <trip id="247" depart="247.00" from="-86668276#1" to="338625942#1"/>
    <trip id="248" depart="248.00" from="106993495#2" to="-339306347#0"/>
    <trip id="249" depart="249.00" from="121047551" to="-276629195#1"/>
    <trip id="250" depart="250.00" from="168759868#0" to="-1217546511#0"/>
    <trip id="251" depart="251.00" from="1066637389#1-AddedOffRampEdge" to="1354608123#0"/>
    <trip id="252" depart="252.00" from="-1207694740#1" to="27563325"/>
    <trip id="253" depart="253.00" from="-276629244#1" to="1217546511#0"/>
    <trip id="254" depart="254.00" from="-1299399171" to="1058065499#1"/>
    <trip id="255" depart="255.00" from="-344069414#0" to="-870347833#0"/>
    <trip id="256" depart="256.00" from="344572053" to="1058065499#1"/>
    <trip id="257" depart="257.00" from="342269354#3" to="52142128#1"/>
    <trip id="258" depart="258.00" from="-416489297#2" to="-135626393#3"/>
    <trip id="259" depart="259.00" from="-1090413739#3" to="1303321199"/>
    <trip id="260" depart="260.00" from="995575693" to="1002206551#1"/>
    <trip id="261" depart="261.00" from="270299638" to="404671429"/>
    <trip id="262" depart="262.00" from="27582928#3" to="344572053"/>
    <trip id="263" depart="263.00" from="856602660" to="-342265279#0"/>
    <trip id="264" depart="264.00" from="-1092040745" to="-338631017#5"/>
    <trip id="265" depart="265.00" from="-225377617" to="325845094"/>
    <trip id="266" depart="266.00" from="1327655449#1" to="-403276222#3"/>
    <trip id="267" depart="267.00" from="339306209" to="386585121"/>
    <trip id="268" depart="268.00" from="-339306314" to="164053760#1"/>
    <trip id="269" depart="269.00" from="342265155" to="-184019837"/>
    <trip id="270" depart="270.00" from="424217549" to="882052662#1"/>
    <trip id="271" depart="271.00" from="-163417069" to="-1217546366#0"/>
    <trip id="272" depart="272.00" from="-769230203" to="336849207#1"/>
    <trip id="273" depart="273.00" from="870347838#0" to="1076615068"/>
    <trip id="274" depart="274.00" from="340418871" to="-1354608133#3"/>
    <trip id="275" depart="275.00" from="338631044#4" to="184015958"/>
    <trip id="276" depart="276.00" from="-156211338#3" to="403276270#1"/>
    <trip id="277" depart="277.00" from="605975248#2" to="163137958#1"/>
    <trip id="278" depart="278.00" from="-184019837" to="95801101#1"/>
    <trip id="279" depart="279.00" from="404092490" to="-978577648#1"/>
    <trip id="280" depart="280.00" from="109687033#2" to="1030872360"/>
    <trip id="281" depart="281.00" from="1270822622" to="-943452573#0"/>
    <trip id="282" depart="282.00" from="605975244" to="45486101#2"/>
    <trip id="283" depart="283.00" from="-161693415#1" to="871796838#1"/>
    <trip id="284" depart="284.00" from="184019850#2" to="506150985"/>
    <trip id="285" depart="285.00" from="339312119#1" to="1174824078"/>
    <trip id="286" depart="286.00" from="340596249#1" to="887530286#1"/>
    <trip id="287" depart="287.00" from="-588583305#1" to="424131448#4"/>
    <trip id="288" depart="288.00" from="1299955986#0" to="1248834491#0"/>
    <trip id="289" depart="289.00" from="1108926817" to="341726209#0"/>
    <trip id="290" depart="290.00" from="-580304845#0" to="638564496-AddedOnRampEdge"/>
    <trip id="291" depart="291.00" from="478770540" to="-139669258#0"/>
    <trip id="292" depart="292.00" from="699571514#0" to="-416489290#1"/>
    <trip id="293" depart="293.00" from="120759938-AddedOffRampEdge" to="168557670#2"/>
    <trip id="294" depart="294.00" from="102777584#1" to="-122480564#0"/>
    <trip id="295" depart="295.00" from="605975250#1" to="-340586316#1"/>
    <trip id="296" depart="296.00" from="-344069423" to="41125713#5"/>
    <trip id="297" depart="297.00" from="-870907481" to="699571521#0"/>
    <trip id="298" depart="298.00" from="339306329#11" to="-699376361#1"/>
    <trip id="299" depart="299.00" from="-1041875024#0" to="856602676#3"/>
    <trip id="300" depart="300.00" from="-135625864" to="340570379#2"/>
    <trip id="301" depart="301.00" from="1226133651" to="346074119#0"/>
    <trip id="302" depart="302.00" from="338631044#4" to="276629216"/>
    <trip id="303" depart="303.00" from="1232311673" to="406007485"/>
    <trip id="304" depart="304.00" from="-139697307#0" to="-403871053#1"/>
    <trip id="305" depart="305.00" from="338631050#0" to="-788407531#1"/>
    <trip id="306" depart="306.00" from="135625864" to="1225879500"/>
    <trip id="307" depart="307.00" from="1299829889" to="1140694396"/>
    <trip id="308" depart="308.00" from="342265122#2" to="-882052610#1"/>
    <trip id="309" depart="309.00" from="339306339#0" to="-664104831"/>
    <trip id="310" depart="310.00" from="-416489288#0" to="-226352582#1"/>
    <trip id="311" depart="311.00" from="-340596275#2" to="-225373162"/>
    <trip id="312" depart="312.00" from="1299955884#0" to="359200674"/>
    <trip id="313" depart="313.00" from="-340552089" to="-390898754#0"/>
    <trip id="314" depart="314.00" from="122526787" to="340596237#3"/>
    <trip id="315" depart="315.00" from="93070257#5" to="1299914346"/>
    <trip id="316" depart="316.00" from="-689286562#0" to="-162637992"/>
    <trip id="317" depart="317.00" from="-340596291#1" to="-404589858#1"/>
    <trip id="318" depart="318.00" from="-340418913#0" to="-1072132327"/>
    <trip id="319" depart="319.00" from="1299829979" to="-689286558"/>
    <trip id="320" depart="320.00" from="920090006" to="1327655440#2"/>
    <trip id="321" depart="321.00" from="339306172#2" to="-27583007#2"/>
    <trip id="322" depart="322.00" from="671229213#0" to="1263423829#0"/>
    <trip id="323" depart="323.00" from="693787319#0" to="1381017458#0"/>
    <trip id="324" depart="324.00" from="1214031382#1" to="1178797818"/>
    <trip id="325" depart="325.00" from="-340552080#3" to="-1299829941"/>
    <trip id="326" depart="326.00" from="849777390#2" to="1231937697"/>
    <trip id="327" depart="327.00" from="424224095" to="108718502"/>
    <trip id="328" depart="328.00" from="-1327659179#1" to="184189693#1"/>
    <trip id="329" depart="329.00" from="-1299829895" to="-335397447#0"/>
    <trip id="330" depart="330.00" from="132638869#1" to="-769635743"/>
    <trip id="331" depart="331.00" from="977537842" to="-184942005#0"/>
    <trip id="332" depart="332.00" from="346039096#4" to="164053736#1"/>
    <trip id="333" depart="333.00" from="405110976#1" to="-404527798"/>
    <trip id="334" depart="334.00" from="1299162314" to="1202061974"/>
    <trip id="335" depart="335.00" from="1173415401" to="665547519#1"/>
    <trip id="336" depart="336.00" from="97662167" to="-774629795#0"/>
    <trip id="337" depart="337.00" from="168740406#1" to="168463275#1"/>
    <trip id="338" depart="338.00" from="341998229#1" to="856602670#1"/>
    <trip id="339" depart="339.00" from="-342269390#1" to="-346074137"/>
    <trip id="340" depart="340.00" from="277926844" to="-338631058#1"/>
    <trip id="341" depart="341.00" from="-339312042#0" to="-1354608125#2"/>
    <trip id="342" depart="342.00" from="-1015287649" to="1202061974"/>
    <trip id="343" depart="343.00" from="1446690577#4" to="-712577938#2"/>
    <trip id="344" depart="344.00" from="-404092573#1" to="340418893#1"/>
    <trip id="345" depart="345.00" from="339306341#0" to="1207694737"/>
    <trip id="346" depart="346.00" from="338625961#1" to="788407533#1"/>
    <trip id="347" depart="347.00" from="404671499#1" to="183994050#0"/>
    <trip id="348" depart="348.00" from="277927154#2" to="821555059#1"/>
    <trip id="349" depart="349.00" from="1092040741#1" to="1320068264#0"/>
    <trip id="350" depart="350.00" from="243285130#2" to="760739560"/>
    <trip id="351" depart="351.00" from="44352079" to="-1334823011#0"/>
    <trip id="352" depart="352.00" from="-339306174#0" to="-796375562#0"/>
    <trip id="353" depart="353.00" from="342265245#1" to="1354611407#3"/>
    <trip id="354" depart="354.00" from="-699548312#1" to="-260452868#0"/>
    <trip id="355" depart="355.00" from="338631017#5" to="339312145#2"/>
    <trip id="356" depart="356.00" from="850154330" to="1279872935"/>
    <trip id="357" depart="357.00" from="1240334285#1" to="-1354611423#0"/>
    <trip id="358" depart="358.00" from="-1258958482" to="1174320381"/>
    <trip id="359" depart="359.00" from="-810908796#1" to="-424217562"/>
    <trip id="360" depart="360.00" from="-139669249" to="882052461#0"/>
    <trip id="361" depart="361.00" from="506174211#1" to="1385798598"/>
    <trip id="362" depart="362.00" from="857963939#1" to="9930491"/>
    <trip id="363" depart="363.00" from="321257214#1" to="-653504934#1"/>
    <trip id="364" depart="364.00" from="-1258958491#0" to="344834088#4"/>
    <trip id="365" depart="365.00" from="1217546363" to="277926837#4"/>
    <trip id="366" depart="366.00" from="769203919#0" to="-340570487#0"/>
    <trip id="367" depart="367.00" from="1386912894#1" to="226352560#4"/>
    <trip id="368" depart="368.00" from="1234279888" to="-142676130"/>
    <trip id="369" depart="369.00" from="-890947078#0" to="-890939355#0"/>
    <trip id="370" depart="370.00" from="296367226" to="662082067"/>
    <trip id="371" depart="371.00" from="-851587717" to="339306330"/>
    <trip id="372" depart="372.00" from="-699548309#1" to="855385553#0"/>
    <trip id="373" depart="373.00" from="424131436#0" to="1322916842"/>
    <trip id="374" depart="374.00" from="1180038091" to="-835506111#2"/>
    <trip id="375" depart="375.00" from="-813371581#1" to="899187477#1"/>
    <trip id="376" depart="376.00" from="106993494#2" to="1299399222"/>
    <trip id="377" depart="377.00" from="971098427#1" to="278483747#1"/>
    <trip id="378" depart="378.00" from="1300716911#1" to="1092040748#0"/>
    <trip id="379" depart="379.00" from="-340570468#1" to="102775157#0"/>
    <trip id="380" depart="380.00" from="343884373" to="184001480#0"/>
    <trip id="381" depart="381.00" from="344551651#1" to="-343884374#1"/>
    <trip id="382" depart="382.00" from="1303321184#0" to="803647281"/>
    <trip id="383" depart="383.00" from="1149837863" to="339312039#0"/>
    <trip id="384" depart="384.00" from="-184019850#3" to="920089996"/>
    <trip id="385" depart="385.00" from="163137953#4" to="-407655886#0"/>
    <trip id="386" depart="386.00" from="-338631017#0" to="132310631#0"/>
    <trip id="387" depart="387.00" from="1303730717#1" to="-1448135668"/>
    <trip id="388" depart="388.00" from="977024821" to="769203911#2"/>
    <trip id="389" depart="389.00" from="1200994420#1" to="-184601390#1"/>
    <trip id="390" depart="390.00" from="495825771#1" to="1274786272#4"/>
    <trip id="391" depart="391.00" from="340418911" to="1293580570"/>
    <trip id="392" depart="392.00" from="-605989868#1" to="575314266#0"/>
    <trip id="393" depart="393.00" from="943452572" to="-416489289#0"/>
    <trip id="394" depart="394.00" from="1303438812" to="106911949"/>
    <trip id="395" depart="395.00" from="769585297#0" to="1293580554-AddedOnRampEdge"/>
    <trip id="396" depart="396.00" from="699548294#1" to="671826545#1"/>
    <trip id="397" depart="397.00" from="-608038624#1" to="405316673#2"/>
    <trip id="398" depart="398.00" from="108718545#0" to="830604243#1"/>
    <trip id="399" depart="399.00" from="1270942554" to="44419490#3"/>
    <trip id="400" depart="400.00" from="-687793242" to="-75861616"/>
    <trip id="401" depart="401.00" from="1391305684#1" to="99243204"/>
    <trip id="402" depart="402.00" from="1227641656#1" to="-335397420#4"/>
    <trip id="403" depart="403.00" from="1299955990#1" to="-972642230"/>